simulations_all_code/gfli_d/sting_log.txt

>> Starting AC power flow...

Model settings: ModelSettings(generator_type_costs='linear', power_flow_formulation='polar', load_shedding=True, write_model_file=False)
Solver settings: SolverSettings(solver_name='ipopt', tee=True, solver_options=None)
> Initializing construction of the optimization model for capacity expansion ... 
 - Decision variables of active power and reactive power for generators
   Size: 4 variables
 - Constraints for generator active power dispatch limits
   Size: 2 constraints
 - Constraints for generator reactive power dispatch limits
   Size: 2 constraints
 - Expressions for dispatch of active power at any bus
   Size: 2 expressions
 - Expressions for dispatch of reactive power at any bus
   Size: 2 expressions
 - Expressions for generation cost per timepoint
   Size: 1 expressions
> Initializing construction of ac power flow variables, constraints, and costs ... 
 - Processing load data for power flow model
 - Decision variables of bus voltage magnitudes and angles
   Size: 4 variables
 - Decision variables of active load shedding
   Size: 2 variables
 - Decision variables of reactive load shedding
   Size: 2 variables
 - Power flow per bus expressions
 - Active power balance at each bus
   Size: 2 constraints
 - Reactive power balance at each bus
   Size: 2 constraints
 - Load shedding cost expressions
   Size: 1 expressions
 - Load shedding cost expressions
   Size: 1 expressions
> Completed in 0.00 seconds. 

> Completed in 0.00 seconds. 

> Completed in 0.00 seconds. 

> Solving ac power flow model...
Ipopt 3.14.19: 

******************************************************************************
This program contains Ipopt, a library for large-scale nonlinear optimization.
 Ipopt is released as open source code under the Eclipse Public License (EPL).
         For more information visit https://github.com/coin-or/Ipopt
******************************************************************************

This is Ipopt version 3.14.19, running with linear solver MUMPS 5.6.2.

Number of nonzeros in equality constraint Jacobian...:       18
Number of nonzeros in inequality constraint Jacobian.:        2
Number of nonzeros in Lagrangian Hessian.............:        3

Total number of variables............................:       10
                     variables with only lower bounds:        4
                variables with lower and upper bounds:        2
                     variables with only upper bounds:        0
Total number of equality constraints.................:        6
Total number of inequality constraints...............:        2
        inequality constraints with only lower bounds:        0
   inequality constraints with lower and upper bounds:        2
        inequality constraints with only upper bounds:        0

iter    objective    inf_pr   inf_du lg(mu)  ||d||  lg(rg) alpha_du alpha_pr  ls
   0  3.9999960e+01 4.60e+03 9.90e+01  -1.0 0.00e+00    -  0.00e+00 0.00e+00   0
   1 -4.6661063e+00 4.55e+03 3.05e+01  -1.0 2.10e+02    -  6.97e-01 1.09e-02f  1
   2 -4.9462584e+02 2.28e+02 2.37e+03  -1.0 2.04e+02    -  9.38e-02 1.00e+00f  1
   3 -4.9649063e+02 5.21e-01 3.14e+02  -1.0 2.27e+02    -  5.59e-01 1.00e+00h  1
   4 -4.9593234e+02 2.74e-06 4.69e-01  -1.0 5.20e-01    -  9.94e-01 1.00e+00h  1
   5 -4.9920248e+02 1.89e-11 2.00e-07  -1.7 1.64e-03    -  1.00e+00 1.00e+00f  1
   6 -4.9999402e+02 7.60e-12 8.62e-09  -3.8 3.96e-04    -  1.00e+00 1.00e+00f  1
   7 -4.9999997e+02 1.33e-11 1.85e-11  -5.7 2.98e-06    -  1.00e+00 1.00e+00f  1
   8 -5.0000004e+02 1.49e-11 2.84e-14  -8.6 3.69e-08    -  1.00e+00 1.00e+00f  1

Number of Iterations....: 8

                                   (scaled)                 (unscaled)
Objective...............:  -5.0000003989976385e+01   -5.0000003989976381e+02
Dual infeasibility......:   2.8421709430404007e-14    2.8421709430404007e-13
Constraint violation....:   1.6685337580910342e-14    1.4868106745780096e-11
Variable bound violation:   9.9749409666714003e-09    9.9749409666714003e-09
Complementarity.........:   2.5059042390659630e-09    2.5059042390659629e-08
Overall NLP error.......:   2.5059042390659630e-09    2.5059042390659629e-08


Number of objective function evaluations             = 9
Number of objective gradient evaluations             = 9
Number of equality constraint evaluations            = 9
Number of inequality constraint evaluations          = 9
Number of equality constraint Jacobian evaluations   = 9
Number of inequality constraint Jacobian evaluations = 9
Number of Lagrangian Hessian evaluations             = 8
Total seconds in IPOPT                               = 0.010

EXIT: Optimal Solution Found.

Could not load duals, i.e., shadow prices, from solver.
> Time spent by solver: 0.08 seconds.
> Solver finished with status: ok, termination condition: optimal.
> Objective value: -500.00003989976386. 

> Initializing export all results to CSV files ... 
- Directory: /Users/ruthkravis/Documents/Research/GFM_data_centers/GridFormingDataCenters/simulations_all_code/gfli_d/outputs/ac_power_flow
> Initializing export generator dispatch results to CSV files ... 
> Completed in 0.00 seconds. 

> Initializing export power flow results to CSV files ... 
> Completed in 0.01 seconds. 

> Completed in 0.02 seconds. 

> Add branches and shunts to system from dissecting pi-model lines:
 - Lines with no series compensation
  - Pi-model 1 lines decomposed into 1 branches and 2 shunts... ok

> Combining parallel RC shunts into one 'effective' parallel RC shunt per bus:
  - System has already one shunt (g parallel b) per bus. No need to combine shunts... ok

> Add constant impedance loads from generic loads:
 - Created 1 constant impedance loads... ok

Modal analysis results:
shape: (29, 5)
┌────────────┬───────────┬──────────────────────┬──────────────────┬───────────────────────┐
│ real       ┆ imag      ┆ natural_frequency_hz ┆ damping_ratio_pu ┆ time_constant_seconds │
│ ---        ┆ ---       ┆ ---                  ┆ ---              ┆ ---                   │
│ f64        ┆ f64       ┆ f64                  ┆ f64              ┆ f64                   │
╞════════════╪═══════════╪══════════════════════╪══════════════════╪═══════════════════════╡
│ -7.616     ┆ 6.289     ┆ 1.572                ┆ 0.771            ┆ 0.1313                │
│ -7.616     ┆ -6.289    ┆ 1.572                ┆ 0.771            ┆ 0.1313                │
│ -13.548    ┆ 0.997     ┆ 2.162                ┆ 0.997            ┆ 0.0738                │
│ -13.548    ┆ -0.997    ┆ 2.162                ┆ 0.997            ┆ 0.0738                │
│ -18.041    ┆ 0.0       ┆ 2.871                ┆ 1.0              ┆ 0.0554                │
│ …          ┆ …         ┆ …                    ┆ …                ┆ …                     │
│ -10000.0   ┆ 0.0       ┆ 1591.549             ┆ 1.0              ┆ 0.0001                │
│ -17220.929 ┆ 2812.787  ┆ 2777.115             ┆ 0.987            ┆ 0.0001                │
│ -17220.929 ┆ -2812.787 ┆ 2777.115             ┆ 0.987            ┆ 0.0001                │
│ -20359.884 ┆ 1647.979  ┆ 3250.974             ┆ 0.997            ┆ 0.0                   │
│ -20359.884 ┆ -1647.979 ┆ 3250.974             ┆ 0.997            ┆ 0.0                   │
└────────────┴───────────┴──────────────────────┴──────────────────┴───────────────────────┘

>> Run completed in 0.11 seconds.


>> Starting AC power flow...

Model settings: ModelSettings(generator_type_costs='linear', power_flow_formulation='polar', load_shedding=True, write_model_file=False)
Solver settings: SolverSettings(solver_name='ipopt', tee=True, solver_options=None)
> Initializing construction of the optimization model for capacity expansion ... 
 - Decision variables of active power and reactive power for generators
   Size: 4 variables
 - Constraints for generator active power dispatch limits
   Size: 2 constraints
 - Constraints for generator reactive power dispatch limits
   Size: 2 constraints
 - Expressions for dispatch of active power at any bus
   Size: 2 expressions
 - Expressions for dispatch of reactive power at any bus
   Size: 2 expressions
 - Expressions for generation cost per timepoint
   Size: 1 expressions
> Initializing construction of ac power flow variables, constraints, and costs ... 
 - Processing load data for power flow model
 - Decision variables of bus voltage magnitudes and angles
   Size: 4 variables
 - Decision variables of active load shedding
   Size: 2 variables
 - Decision variables of reactive load shedding
   Size: 2 variables
 - Power flow per bus expressions
 - Active power balance at each bus
   Size: 2 constraints
 - Reactive power balance at each bus
   Size: 2 constraints
 - Load shedding cost expressions
   Size: 1 expressions
 - Load shedding cost expressions
   Size: 1 expressions
> Completed in 0.00 seconds. 

> Completed in 0.00 seconds. 

> Completed in 0.00 seconds. 

> Solving ac power flow model...
Ipopt 3.14.19: 

******************************************************************************
This program contains Ipopt, a library for large-scale nonlinear optimization.
 Ipopt is released as open source code under the Eclipse Public License (EPL).
         For more information visit https://github.com/coin-or/Ipopt
******************************************************************************

This is Ipopt version 3.14.19, running with linear solver MUMPS 5.6.2.

Number of nonzeros in equality constraint Jacobian...:       18
Number of nonzeros in inequality constraint Jacobian.:        2
Number of nonzeros in Lagrangian Hessian.............:        3

Total number of variables............................:       10
                     variables with only lower bounds:        4
                variables with lower and upper bounds:        2
                     variables with only upper bounds:        0
Total number of equality constraints.................:        6
Total number of inequality constraints...............:        2
        inequality constraints with only lower bounds:        0
   inequality constraints with lower and upper bounds:        2
        inequality constraints with only upper bounds:        0

iter    objective    inf_pr   inf_du lg(mu)  ||d||  lg(rg) alpha_du alpha_pr  ls
   0  3.9999960e+01 4.60e+03 9.90e+01  -1.0 0.00e+00    -  0.00e+00 0.00e+00   0
   1 -4.6661063e+00 4.55e+03 3.05e+01  -1.0 2.10e+02    -  6.97e-01 1.09e-02f  1
   2 -4.9462584e+02 2.28e+02 2.37e+03  -1.0 2.04e+02    -  9.38e-02 1.00e+00f  1
   3 -4.9649063e+02 5.21e-01 3.14e+02  -1.0 2.27e+02    -  5.59e-01 1.00e+00h  1
   4 -4.9593234e+02 2.74e-06 4.69e-01  -1.0 5.20e-01    -  9.94e-01 1.00e+00h  1
   5 -4.9920248e+02 1.89e-11 2.00e-07  -1.7 1.64e-03    -  1.00e+00 1.00e+00f  1
   6 -4.9999402e+02 7.60e-12 8.62e-09  -3.8 3.96e-04    -  1.00e+00 1.00e+00f  1
   7 -4.9999997e+02 1.33e-11 1.85e-11  -5.7 2.98e-06    -  1.00e+00 1.00e+00f  1
   8 -5.0000004e+02 1.49e-11 2.84e-14  -8.6 3.69e-08    -  1.00e+00 1.00e+00f  1

Number of Iterations....: 8

                                   (scaled)                 (unscaled)
Objective...............:  -5.0000003989976385e+01   -5.0000003989976381e+02
Dual infeasibility......:   2.8421709430404007e-14    2.8421709430404007e-13
Constraint violation....:   1.6685337580910342e-14    1.4868106745780096e-11
Variable bound violation:   9.9749409666714003e-09    9.9749409666714003e-09
Complementarity.........:   2.5059042390659630e-09    2.5059042390659629e-08
Overall NLP error.......:   2.5059042390659630e-09    2.5059042390659629e-08


Number of objective function evaluations             = 9
Number of objective gradient evaluations             = 9
Number of equality constraint evaluations            = 9
Number of inequality constraint evaluations          = 9
Number of equality constraint Jacobian evaluations   = 9
Number of inequality constraint Jacobian evaluations = 9
Number of Lagrangian Hessian evaluations             = 8
Total seconds in IPOPT                               = 0.005

EXIT: Optimal Solution Found.

Could not load duals, i.e., shadow prices, from solver.
> Time spent by solver: 0.06 seconds.
> Solver finished with status: ok, termination condition: optimal.
> Objective value: -500.00003989976386. 

> Initializing export all results to CSV files ... 
- Directory: /Users/ruthkravis/Documents/Research/GFM_data_centers/GridFormingDataCenters/simulations_all_code/gfmi_c/outputs/ac_power_flow
> Initializing export generator dispatch results to CSV files ... 
> Completed in 0.00 seconds. 

> Initializing export power flow results to CSV files ... 
> Completed in 0.00 seconds. 

> Completed in 0.01 seconds. 

> Add branches and shunts to system from dissecting pi-model lines:
 - Lines with no series compensation
  - Pi-model 1 lines decomposed into 1 branches and 2 shunts... ok

> Combining parallel RC shunts into one 'effective' parallel RC shunt per bus:
  - System has already one shunt (g parallel b) per bus. No need to combine shunts... ok

> Add constant impedance loads from generic loads:
 - Created 1 constant impedance loads... ok

Modal analysis results:
shape: (23, 5)
┌───────────┬───────────┬──────────────────────┬──────────────────┬───────────────────────┐
│ real      ┆ imag      ┆ natural_frequency_hz ┆ damping_ratio_pu ┆ time_constant_seconds │
│ ---       ┆ ---       ┆ ---                  ┆ ---              ┆ ---                   │
│ f64       ┆ f64       ┆ f64                  ┆ f64              ┆ f64                   │
╞═══════════╪═══════════╪══════════════════════╪══════════════════╪═══════════════════════╡
│ -8.632    ┆ 19.043    ┆ 3.328                ┆ 0.413            ┆ 0.1159                │
│ -8.632    ┆ -19.043   ┆ 3.328                ┆ 0.413            ┆ 0.1159                │
│ -12.614   ┆ 0.0       ┆ 2.008                ┆ 1.0              ┆ 0.0793                │
│ -12.649   ┆ 0.0       ┆ 2.013                ┆ 1.0              ┆ 0.0791                │
│ -63.562   ┆ 298.562   ┆ 48.583               ┆ 0.208            ┆ 0.0157                │
│ …         ┆ …         ┆ …                    ┆ …                ┆ …                     │
│ -4089.992 ┆ 0.0       ┆ 650.942              ┆ 1.0              ┆ 0.0002                │
│ -5475.023 ┆ 4893.421  ┆ 1168.694             ┆ 0.746            ┆ 0.0002                │
│ -5475.023 ┆ -4893.421 ┆ 1168.694             ┆ 0.746            ┆ 0.0002                │
│ -6073.666 ┆ 5189.129  ┆ 1271.413             ┆ 0.76             ┆ 0.0002                │
│ -6073.666 ┆ -5189.129 ┆ 1271.413             ┆ 0.76             ┆ 0.0002                │
└───────────┴───────────┴──────────────────────┴──────────────────┴───────────────────────┘

>> Run completed in 0.08 seconds.


>> Starting AC power flow...

Model settings: ModelSettings(generator_type_costs='linear', power_flow_formulation='polar', load_shedding=True, write_model_file=False)
Solver settings: SolverSettings(solver_name='ipopt', tee=True, solver_options=None)
> Initializing construction of the optimization model for capacity expansion ... 
 - Decision variables of active power and reactive power for generators
   Size: 4 variables
 - Constraints for generator active power dispatch limits
   Size: 2 constraints
 - Constraints for generator reactive power dispatch limits
   Size: 2 constraints
 - Expressions for dispatch of active power at any bus
   Size: 2 expressions
 - Expressions for dispatch of reactive power at any bus
   Size: 2 expressions
 - Expressions for generation cost per timepoint
   Size: 1 expressions
> Initializing construction of ac power flow variables, constraints, and costs ... 
 - Processing load data for power flow model
 - Decision variables of bus voltage magnitudes and angles
   Size: 4 variables
 - Decision variables of active load shedding
   Size: 2 variables
 - Decision variables of reactive load shedding
   Size: 2 variables
 - Power flow per bus expressions
 - Active power balance at each bus
   Size: 2 constraints
 - Reactive power balance at each bus
   Size: 2 constraints
 - Load shedding cost expressions
   Size: 1 expressions
 - Load shedding cost expressions
   Size: 1 expressions
> Completed in 0.00 seconds. 

> Completed in 0.00 seconds. 

> Completed in 0.00 seconds. 

> Solving ac power flow model...
Ipopt 3.14.19: 

******************************************************************************
This program contains Ipopt, a library for large-scale nonlinear optimization.
 Ipopt is released as open source code under the Eclipse Public License (EPL).
         For more information visit https://github.com/coin-or/Ipopt
******************************************************************************

This is Ipopt version 3.14.19, running with linear solver MUMPS 5.6.2.

Number of nonzeros in equality constraint Jacobian...:       18
Number of nonzeros in inequality constraint Jacobian.:        2
Number of nonzeros in Lagrangian Hessian.............:        3

Total number of variables............................:       10
                     variables with only lower bounds:        4
                variables with lower and upper bounds:        2
                     variables with only upper bounds:        0
Total number of equality constraints.................:        6
Total number of inequality constraints...............:        2
        inequality constraints with only lower bounds:        0
   inequality constraints with lower and upper bounds:        2
        inequality constraints with only upper bounds:        0

iter    objective    inf_pr   inf_du lg(mu)  ||d||  lg(rg) alpha_du alpha_pr  ls
   0  3.9999960e+01 4.60e+03 9.90e+01  -1.0 0.00e+00    -  0.00e+00 0.00e+00   0
   1 -4.6661063e+00 4.55e+03 3.05e+01  -1.0 2.10e+02    -  6.97e-01 1.09e-02f  1
   2 -4.9462584e+02 2.28e+02 2.37e+03  -1.0 2.04e+02    -  9.38e-02 1.00e+00f  1
   3 -4.9649063e+02 5.21e-01 3.14e+02  -1.0 2.27e+02    -  5.59e-01 1.00e+00h  1
   4 -4.9593234e+02 2.74e-06 4.69e-01  -1.0 5.20e-01    -  9.94e-01 1.00e+00h  1
   5 -4.9920248e+02 1.89e-11 2.00e-07  -1.7 1.64e-03    -  1.00e+00 1.00e+00f  1
   6 -4.9999402e+02 7.60e-12 8.62e-09  -3.8 3.96e-04    -  1.00e+00 1.00e+00f  1
   7 -4.9999997e+02 1.33e-11 1.85e-11  -5.7 2.98e-06    -  1.00e+00 1.00e+00f  1
   8 -5.0000004e+02 1.49e-11 2.84e-14  -8.6 3.69e-08    -  1.00e+00 1.00e+00f  1

Number of Iterations....: 8

                                   (scaled)                 (unscaled)
Objective...............:  -5.0000003989976385e+01   -5.0000003989976381e+02
Dual infeasibility......:   2.8421709430404007e-14    2.8421709430404007e-13
Constraint violation....:   1.6685337580910342e-14    1.4868106745780096e-11
Variable bound violation:   9.9749409666714003e-09    9.9749409666714003e-09
Complementarity.........:   2.5059042390659630e-09    2.5059042390659629e-08
Overall NLP error.......:   2.5059042390659630e-09    2.5059042390659629e-08


Number of objective function evaluations             = 9
Number of objective gradient evaluations             = 9
Number of equality constraint evaluations            = 9
Number of inequality constraint evaluations          = 9
Number of equality constraint Jacobian evaluations   = 9
Number of inequality constraint Jacobian evaluations = 9
Number of Lagrangian Hessian evaluations             = 8
Total seconds in IPOPT                               = 0.005

EXIT: Optimal Solution Found.

Could not load duals, i.e., shadow prices, from solver.
> Time spent by solver: 0.06 seconds.
> Solver finished with status: ok, termination condition: optimal.
> Objective value: -500.00003989976386. 

> Initializing export all results to CSV files ... 
- Directory: /Users/ruthkravis/Documents/Research/GFM_data_centers/GridFormingDataCenters/simulations_all_code/gfmi_e/outputs/ac_power_flow
> Initializing export generator dispatch results to CSV files ... 
> Completed in 0.00 seconds. 

> Initializing export power flow results to CSV files ... 
> Completed in 0.00 seconds. 

> Completed in 0.02 seconds. 

> Add branches and shunts to system from dissecting pi-model lines:
 - Lines with no series compensation
  - Pi-model 1 lines decomposed into 1 branches and 2 shunts... ok

> Combining parallel RC shunts into one 'effective' parallel RC shunt per bus:
  - System has already one shunt (g parallel b) per bus. No need to combine shunts... ok

> Add constant impedance loads from generic loads:
 - Created 1 constant impedance loads... ok

Modal analysis results:
shape: (32, 5)
┌───────────┬───────────┬──────────────────────┬──────────────────┬───────────────────────┐
│ real      ┆ imag      ┆ natural_frequency_hz ┆ damping_ratio_pu ┆ time_constant_seconds │
│ ---       ┆ ---       ┆ ---                  ┆ ---              ┆ ---                   │
│ f64       ┆ f64       ┆ f64                  ┆ f64              ┆ f64                   │
╞═══════════╪═══════════╪══════════════════════╪══════════════════╪═══════════════════════╡
│ -6.286    ┆ 9.449     ┆ 1.806                ┆ 0.554            ┆ 0.1591                │
│ -6.286    ┆ -9.449    ┆ 1.806                ┆ 0.554            ┆ 0.1591                │
│ -8.632    ┆ 19.043    ┆ 3.328                ┆ 0.413            ┆ 0.1159                │
│ -8.632    ┆ -19.043   ┆ 3.328                ┆ 0.413            ┆ 0.1159                │
│ -12.614   ┆ 0.0       ┆ 2.008                ┆ 1.0              ┆ 0.0793                │
│ …         ┆ …         ┆ …                    ┆ …                ┆ …                     │
│ -5475.023 ┆ 4893.421  ┆ 1168.694             ┆ 0.746            ┆ 0.0002                │
│ -5475.023 ┆ -4893.421 ┆ 1168.694             ┆ 0.746            ┆ 0.0002                │
│ -6073.666 ┆ 5189.129  ┆ 1271.413             ┆ 0.76             ┆ 0.0002                │
│ -6073.666 ┆ -5189.129 ┆ 1271.413             ┆ 0.76             ┆ 0.0002                │
│ -10000.0  ┆ 0.0       ┆ 1591.549             ┆ 1.0              ┆ 0.0001                │
└───────────┴───────────┴──────────────────────┴──────────────────┴───────────────────────┘

>> Run completed in 0.10 seconds.


>> Starting AC power flow...

Model settings: ModelSettings(generator_type_costs='linear', power_flow_formulation='polar', load_shedding=True, write_model_file=False)
Solver settings: SolverSettings(solver_name='ipopt', tee=True, solver_options=None)
> Initializing construction of the optimization model for capacity expansion ... 
 - Decision variables of active power and reactive power for generators
   Size: 4 variables
 - Constraints for generator active power dispatch limits
   Size: 2 constraints
 - Constraints for generator reactive power dispatch limits
   Size: 2 constraints
 - Expressions for dispatch of active power at any bus
   Size: 2 expressions
 - Expressions for dispatch of reactive power at any bus
   Size: 2 expressions
 - Expressions for generation cost per timepoint
   Size: 1 expressions
> Initializing construction of ac power flow variables, constraints, and costs ... 
 - Processing load data for power flow model
 - Decision variables of bus voltage magnitudes and angles
   Size: 4 variables
 - Decision variables of active load shedding
   Size: 2 variables
 - Decision variables of reactive load shedding
   Size: 2 variables
 - Power flow per bus expressions
 - Active power balance at each bus
   Size: 2 constraints
 - Reactive power balance at each bus
   Size: 2 constraints
 - Load shedding cost expressions
   Size: 1 expressions
 - Load shedding cost expressions
   Size: 1 expressions
> Completed in 0.00 seconds. 

> Completed in 0.00 seconds. 

> Completed in 0.00 seconds. 

> Solving ac power flow model...
Ipopt 3.14.19: 

******************************************************************************
This program contains Ipopt, a library for large-scale nonlinear optimization.
 Ipopt is released as open source code under the Eclipse Public License (EPL).
         For more information visit https://github.com/coin-or/Ipopt
******************************************************************************

This is Ipopt version 3.14.19, running with linear solver MUMPS 5.6.2.

Number of nonzeros in equality constraint Jacobian...:       18
Number of nonzeros in inequality constraint Jacobian.:        2
Number of nonzeros in Lagrangian Hessian.............:        3

Total number of variables............................:       10
                     variables with only lower bounds:        4
                variables with lower and upper bounds:        2
                     variables with only upper bounds:        0
Total number of equality constraints.................:        6
Total number of inequality constraints...............:        2
        inequality constraints with only lower bounds:        0
   inequality constraints with lower and upper bounds:        2
        inequality constraints with only upper bounds:        0

iter    objective    inf_pr   inf_du lg(mu)  ||d||  lg(rg) alpha_du alpha_pr  ls
   0  3.9999960e+01 4.60e+03 9.90e+01  -1.0 0.00e+00    -  0.00e+00 0.00e+00   0
   1 -4.6661063e+00 4.55e+03 3.05e+01  -1.0 2.10e+02    -  6.97e-01 1.09e-02f  1
   2 -4.9462584e+02 2.28e+02 2.37e+03  -1.0 2.04e+02    -  9.38e-02 1.00e+00f  1
   3 -4.9649063e+02 5.21e-01 3.14e+02  -1.0 2.27e+02    -  5.59e-01 1.00e+00h  1
   4 -4.9593234e+02 2.74e-06 4.69e-01  -1.0 5.20e-01    -  9.94e-01 1.00e+00h  1
   5 -4.9920248e+02 1.89e-11 2.00e-07  -1.7 1.64e-03    -  1.00e+00 1.00e+00f  1
   6 -4.9999402e+02 7.60e-12 8.62e-09  -3.8 3.96e-04    -  1.00e+00 1.00e+00f  1
   7 -4.9999997e+02 1.33e-11 1.85e-11  -5.7 2.98e-06    -  1.00e+00 1.00e+00f  1
   8 -5.0000004e+02 1.49e-11 2.84e-14  -8.6 3.69e-08    -  1.00e+00 1.00e+00f  1

Number of Iterations....: 8

                                   (scaled)                 (unscaled)
Objective...............:  -5.0000003989976385e+01   -5.0000003989976381e+02
Dual infeasibility......:   2.8421709430404007e-14    2.8421709430404007e-13
Constraint violation....:   1.6685337580910342e-14    1.4868106745780096e-11
Variable bound violation:   9.9749409666714003e-09    9.9749409666714003e-09
Complementarity.........:   2.5059042390659630e-09    2.5059042390659629e-08
Overall NLP error.......:   2.5059042390659630e-09    2.5059042390659629e-08


Number of objective function evaluations             = 9
Number of objective gradient evaluations             = 9
Number of equality constraint evaluations            = 9
Number of inequality constraint evaluations          = 9
Number of equality constraint Jacobian evaluations   = 9
Number of inequality constraint Jacobian evaluations = 9
Number of Lagrangian Hessian evaluations             = 8
Total seconds in IPOPT                               = 0.005

EXIT: Optimal Solution Found.

Could not load duals, i.e., shadow prices, from solver.
> Time spent by solver: 0.06 seconds.
> Solver finished with status: ok, termination condition: optimal.
> Objective value: -500.00003989976386. 

> Initializing export all results to CSV files ... 
- Directory: /Users/ruthkravis/Documents/Research/GFM_data_centers/GridFormingDataCenters/simulations_all_code/gfli_d/outputs/ac_power_flow
> Initializing export generator dispatch results to CSV files ... 
> Completed in 0.00 seconds. 

> Initializing export power flow results to CSV files ... 
> Completed in 0.01 seconds. 

> Completed in 0.01 seconds. 

> Add branches and shunts to system from dissecting pi-model lines:
 - Lines with no series compensation
  - Pi-model 1 lines decomposed into 1 branches and 2 shunts... ok

> Combining parallel RC shunts into one 'effective' parallel RC shunt per bus:
  - System has already one shunt (g parallel b) per bus. No need to combine shunts... ok

> Add constant impedance loads from generic loads:
 - Created 1 constant impedance loads... ok

Modal analysis results:
shape: (29, 5)
┌────────────┬───────────┬──────────────────────┬──────────────────┬───────────────────────┐
│ real       ┆ imag      ┆ natural_frequency_hz ┆ damping_ratio_pu ┆ time_constant_seconds │
│ ---        ┆ ---       ┆ ---                  ┆ ---              ┆ ---                   │
│ f64        ┆ f64       ┆ f64                  ┆ f64              ┆ f64                   │
╞════════════╪═══════════╪══════════════════════╪══════════════════╪═══════════════════════╡
│ -7.616     ┆ 6.289     ┆ 1.572                ┆ 0.771            ┆ 0.1313                │
│ -7.616     ┆ -6.289    ┆ 1.572                ┆ 0.771            ┆ 0.1313                │
│ -13.548    ┆ 0.997     ┆ 2.162                ┆ 0.997            ┆ 0.0738                │
│ -13.548    ┆ -0.997    ┆ 2.162                ┆ 0.997            ┆ 0.0738                │
│ -18.041    ┆ 0.0       ┆ 2.871                ┆ 1.0              ┆ 0.0554                │
│ …          ┆ …         ┆ …                    ┆ …                ┆ …                     │
│ -10000.0   ┆ 0.0       ┆ 1591.549             ┆ 1.0              ┆ 0.0001                │
│ -17220.929 ┆ 2812.787  ┆ 2777.115             ┆ 0.987            ┆ 0.0001                │
│ -17220.929 ┆ -2812.787 ┆ 2777.115             ┆ 0.987            ┆ 0.0001                │
│ -20359.884 ┆ 1647.979  ┆ 3250.974             ┆ 0.997            ┆ 0.0                   │
│ -20359.884 ┆ -1647.979 ┆ 3250.974             ┆ 0.997            ┆ 0.0                   │
└────────────┴───────────┴──────────────────────┴──────────────────┴───────────────────────┘

>> Run completed in 0.10 seconds.


>> Starting AC power flow...

Model settings: ModelSettings(generator_type_costs='linear', power_flow_formulation='polar', load_shedding=True, write_model_file=False)
Solver settings: SolverSettings(solver_name='ipopt', tee=True, solver_options=None)
> Initializing construction of the optimization model for capacity expansion ... 
 - Decision variables of active power and reactive power for generators
   Size: 4 variables
 - Constraints for generator active power dispatch limits
   Size: 2 constraints
 - Constraints for generator reactive power dispatch limits
   Size: 2 constraints
 - Expressions for dispatch of active power at any bus
   Size: 2 expressions
 - Expressions for dispatch of reactive power at any bus
   Size: 2 expressions
 - Expressions for generation cost per timepoint
   Size: 1 expressions
> Initializing construction of ac power flow variables, constraints, and costs ... 
 - Processing load data for power flow model
 - Decision variables of bus voltage magnitudes and angles
   Size: 4 variables
 - Decision variables of active load shedding
   Size: 2 variables
 - Decision variables of reactive load shedding
   Size: 2 variables
 - Power flow per bus expressions
 - Active power balance at each bus
   Size: 2 constraints
 - Reactive power balance at each bus
   Size: 2 constraints
 - Load shedding cost expressions
   Size: 1 expressions
 - Load shedding cost expressions
   Size: 1 expressions
> Completed in 0.00 seconds. 

> Completed in 0.00 seconds. 

> Completed in 0.00 seconds. 

> Solving ac power flow model...
Ipopt 3.14.19: 

******************************************************************************
This program contains Ipopt, a library for large-scale nonlinear optimization.
 Ipopt is released as open source code under the Eclipse Public License (EPL).
         For more information visit https://github.com/coin-or/Ipopt
******************************************************************************

This is Ipopt version 3.14.19, running with linear solver MUMPS 5.6.2.

Number of nonzeros in equality constraint Jacobian...:       18
Number of nonzeros in inequality constraint Jacobian.:        2
Number of nonzeros in Lagrangian Hessian.............:        3

Total number of variables............................:       10
                     variables with only lower bounds:        4
                variables with lower and upper bounds:        2
                     variables with only upper bounds:        0
Total number of equality constraints.................:        6
Total number of inequality constraints...............:        2
        inequality constraints with only lower bounds:        0
   inequality constraints with lower and upper bounds:        2
        inequality constraints with only upper bounds:        0

iter    objective    inf_pr   inf_du lg(mu)  ||d||  lg(rg) alpha_du alpha_pr  ls
   0  3.9999960e+01 4.60e+03 9.90e+01  -1.0 0.00e+00    -  0.00e+00 0.00e+00   0
   1 -4.6661063e+00 4.55e+03 3.05e+01  -1.0 2.10e+02    -  6.97e-01 1.09e-02f  1
   2 -4.9462584e+02 2.28e+02 2.37e+03  -1.0 2.04e+02    -  9.38e-02 1.00e+00f  1
   3 -4.9649063e+02 5.21e-01 3.14e+02  -1.0 2.27e+02    -  5.59e-01 1.00e+00h  1
   4 -4.9593234e+02 2.74e-06 4.69e-01  -1.0 5.20e-01    -  9.94e-01 1.00e+00h  1
   5 -4.9920248e+02 1.89e-11 2.00e-07  -1.7 1.64e-03    -  1.00e+00 1.00e+00f  1
   6 -4.9999402e+02 7.60e-12 8.62e-09  -3.8 3.96e-04    -  1.00e+00 1.00e+00f  1
   7 -4.9999997e+02 1.33e-11 1.85e-11  -5.7 2.98e-06    -  1.00e+00 1.00e+00f  1
   8 -5.0000004e+02 1.49e-11 2.84e-14  -8.6 3.69e-08    -  1.00e+00 1.00e+00f  1

Number of Iterations....: 8

                                   (scaled)                 (unscaled)
Objective...............:  -5.0000003989976385e+01   -5.0000003989976381e+02
Dual infeasibility......:   2.8421709430404007e-14    2.8421709430404007e-13
Constraint violation....:   1.6685337580910342e-14    1.4868106745780096e-11
Variable bound violation:   9.9749409666714003e-09    9.9749409666714003e-09
Complementarity.........:   2.5059042390659630e-09    2.5059042390659629e-08
Overall NLP error.......:   2.5059042390659630e-09    2.5059042390659629e-08


Number of objective function evaluations             = 9
Number of objective gradient evaluations             = 9
Number of equality constraint evaluations            = 9
Number of inequality constraint evaluations          = 9
Number of equality constraint Jacobian evaluations   = 9
Number of inequality constraint Jacobian evaluations = 9
Number of Lagrangian Hessian evaluations             = 8
Total seconds in IPOPT                               = 0.006

EXIT: Optimal Solution Found.

Could not load duals, i.e., shadow prices, from solver.
> Time spent by solver: 0.07 seconds.
> Solver finished with status: ok, termination condition: optimal.
> Objective value: -500.00003989976386. 

> Initializing export all results to CSV files ... 
- Directory: /Users/ruthkravis/Documents/Research/GFM_data_centers/GridFormingDataCenters/simulations_all_code/gfmi_c/outputs/ac_power_flow
> Initializing export generator dispatch results to CSV files ... 
> Completed in 0.00 seconds. 

> Initializing export power flow results to CSV files ... 
> Completed in 0.01 seconds. 

> Completed in 0.02 seconds. 

> Add branches and shunts to system from dissecting pi-model lines:
 - Lines with no series compensation
  - Pi-model 1 lines decomposed into 1 branches and 2 shunts... ok

> Combining parallel RC shunts into one 'effective' parallel RC shunt per bus:
  - System has already one shunt (g parallel b) per bus. No need to combine shunts... ok

> Add constant impedance loads from generic loads:
 - Created 1 constant impedance loads... ok

Modal analysis results:
shape: (23, 5)
┌───────────┬───────────┬──────────────────────┬──────────────────┬───────────────────────┐
│ real      ┆ imag      ┆ natural_frequency_hz ┆ damping_ratio_pu ┆ time_constant_seconds │
│ ---       ┆ ---       ┆ ---                  ┆ ---              ┆ ---                   │
│ f64       ┆ f64       ┆ f64                  ┆ f64              ┆ f64                   │
╞═══════════╪═══════════╪══════════════════════╪══════════════════╪═══════════════════════╡
│ -8.632    ┆ 19.043    ┆ 3.328                ┆ 0.413            ┆ 0.1159                │
│ -8.632    ┆ -19.043   ┆ 3.328                ┆ 0.413            ┆ 0.1159                │
│ -12.614   ┆ 0.0       ┆ 2.008                ┆ 1.0              ┆ 0.0793                │
│ -12.649   ┆ 0.0       ┆ 2.013                ┆ 1.0              ┆ 0.0791                │
│ -63.562   ┆ 298.562   ┆ 48.583               ┆ 0.208            ┆ 0.0157                │
│ …         ┆ …         ┆ …                    ┆ …                ┆ …                     │
│ -4089.992 ┆ 0.0       ┆ 650.942              ┆ 1.0              ┆ 0.0002                │
│ -5475.023 ┆ 4893.421  ┆ 1168.694             ┆ 0.746            ┆ 0.0002                │
│ -5475.023 ┆ -4893.421 ┆ 1168.694             ┆ 0.746            ┆ 0.0002                │
│ -6073.666 ┆ 5189.129  ┆ 1271.413             ┆ 0.76             ┆ 0.0002                │
│ -6073.666 ┆ -5189.129 ┆ 1271.413             ┆ 0.76             ┆ 0.0002                │
└───────────┴───────────┴──────────────────────┴──────────────────┴───────────────────────┘

>> Run completed in 0.12 seconds.


>> Starting AC power flow...

Model settings: ModelSettings(generator_type_costs='linear', power_flow_formulation='polar', load_shedding=True, write_model_file=False)
Solver settings: SolverSettings(solver_name='ipopt', tee=True, solver_options=None)
> Initializing construction of the optimization model for capacity expansion ... 
 - Decision variables of active power and reactive power for generators
   Size: 4 variables
 - Constraints for generator active power dispatch limits
   Size: 2 constraints
 - Constraints for generator reactive power dispatch limits
   Size: 2 constraints
 - Expressions for dispatch of active power at any bus
   Size: 2 expressions
 - Expressions for dispatch of reactive power at any bus
   Size: 2 expressions
 - Expressions for generation cost per timepoint
   Size: 1 expressions
> Initializing construction of ac power flow variables, constraints, and costs ... 
 - Processing load data for power flow model
 - Decision variables of bus voltage magnitudes and angles
   Size: 4 variables
 - Decision variables of active load shedding
   Size: 2 variables
 - Decision variables of reactive load shedding
   Size: 2 variables
 - Power flow per bus expressions
 - Active power balance at each bus
   Size: 2 constraints
 - Reactive power balance at each bus
   Size: 2 constraints
 - Load shedding cost expressions
   Size: 1 expressions
 - Load shedding cost expressions
   Size: 1 expressions
> Completed in 0.00 seconds. 

> Completed in 0.00 seconds. 

> Completed in 0.01 seconds. 

> Solving ac power flow model...
Ipopt 3.14.19: 

******************************************************************************
This program contains Ipopt, a library for large-scale nonlinear optimization.
 Ipopt is released as open source code under the Eclipse Public License (EPL).
         For more information visit https://github.com/coin-or/Ipopt
******************************************************************************

This is Ipopt version 3.14.19, running with linear solver MUMPS 5.6.2.

Number of nonzeros in equality constraint Jacobian...:       18
Number of nonzeros in inequality constraint Jacobian.:        2
Number of nonzeros in Lagrangian Hessian.............:        3

Total number of variables............................:       10
                     variables with only lower bounds:        4
                variables with lower and upper bounds:        2
                     variables with only upper bounds:        0
Total number of equality constraints.................:        6
Total number of inequality constraints...............:        2
        inequality constraints with only lower bounds:        0
   inequality constraints with lower and upper bounds:        2
        inequality constraints with only upper bounds:        0

iter    objective    inf_pr   inf_du lg(mu)  ||d||  lg(rg) alpha_du alpha_pr  ls
   0  3.9999960e+01 4.60e+03 9.90e+01  -1.0 0.00e+00    -  0.00e+00 0.00e+00   0
   1 -4.6661063e+00 4.55e+03 3.05e+01  -1.0 2.10e+02    -  6.97e-01 1.09e-02f  1
   2 -4.9462584e+02 2.28e+02 2.37e+03  -1.0 2.04e+02    -  9.38e-02 1.00e+00f  1
   3 -4.9649063e+02 5.21e-01 3.14e+02  -1.0 2.27e+02    -  5.59e-01 1.00e+00h  1
   4 -4.9593234e+02 2.74e-06 4.69e-01  -1.0 5.20e-01    -  9.94e-01 1.00e+00h  1
   5 -4.9920248e+02 1.89e-11 2.00e-07  -1.7 1.64e-03    -  1.00e+00 1.00e+00f  1
   6 -4.9999402e+02 7.60e-12 8.62e-09  -3.8 3.96e-04    -  1.00e+00 1.00e+00f  1
   7 -4.9999997e+02 1.33e-11 1.85e-11  -5.7 2.98e-06    -  1.00e+00 1.00e+00f  1
   8 -5.0000004e+02 1.49e-11 2.84e-14  -8.6 3.69e-08    -  1.00e+00 1.00e+00f  1

Number of Iterations....: 8

                                   (scaled)                 (unscaled)
Objective...............:  -5.0000003989976385e+01   -5.0000003989976381e+02
Dual infeasibility......:   2.8421709430404007e-14    2.8421709430404007e-13
Constraint violation....:   1.6685337580910342e-14    1.4868106745780096e-11
Variable bound violation:   9.9749409666714003e-09    9.9749409666714003e-09
Complementarity.........:   2.5059042390659630e-09    2.5059042390659629e-08
Overall NLP error.......:   2.5059042390659630e-09    2.5059042390659629e-08


Number of objective function evaluations             = 9
Number of objective gradient evaluations             = 9
Number of equality constraint evaluations            = 9
Number of inequality constraint evaluations          = 9
Number of equality constraint Jacobian evaluations   = 9
Number of inequality constraint Jacobian evaluations = 9
Number of Lagrangian Hessian evaluations             = 8
Total seconds in IPOPT                               = 0.010

EXIT: Optimal Solution Found.

Could not load duals, i.e., shadow prices, from solver.
> Time spent by solver: 0.09 seconds.
> Solver finished with status: ok, termination condition: optimal.
> Objective value: -500.00003989976386. 

> Initializing export all results to CSV files ... 
- Directory: /Users/ruthkravis/Documents/Research/GFM_data_centers/GridFormingDataCenters/simulations_all_code/gfmi_e/outputs/ac_power_flow
> Initializing export generator dispatch results to CSV files ... 
> Completed in 0.00 seconds. 

> Initializing export power flow results to CSV files ... 
> Completed in 0.00 seconds. 

> Completed in 0.01 seconds. 

> Add branches and shunts to system from dissecting pi-model lines:
 - Lines with no series compensation
  - Pi-model 1 lines decomposed into 1 branches and 2 shunts... ok

> Combining parallel RC shunts into one 'effective' parallel RC shunt per bus:
  - System has already one shunt (g parallel b) per bus. No need to combine shunts... ok

> Add constant impedance loads from generic loads:
 - Created 1 constant impedance loads... ok

Modal analysis results:
shape: (32, 5)
┌───────────┬───────────┬──────────────────────┬──────────────────┬───────────────────────┐
│ real      ┆ imag      ┆ natural_frequency_hz ┆ damping_ratio_pu ┆ time_constant_seconds │
│ ---       ┆ ---       ┆ ---                  ┆ ---              ┆ ---                   │
│ f64       ┆ f64       ┆ f64                  ┆ f64              ┆ f64                   │
╞═══════════╪═══════════╪══════════════════════╪══════════════════╪═══════════════════════╡
│ -6.286    ┆ 9.449     ┆ 1.806                ┆ 0.554            ┆ 0.1591                │
│ -6.286    ┆ -9.449    ┆ 1.806                ┆ 0.554            ┆ 0.1591                │
│ -8.632    ┆ 19.043    ┆ 3.328                ┆ 0.413            ┆ 0.1159                │
│ -8.632    ┆ -19.043   ┆ 3.328                ┆ 0.413            ┆ 0.1159                │
│ -12.614   ┆ 0.0       ┆ 2.008                ┆ 1.0              ┆ 0.0793                │
│ …         ┆ …         ┆ …                    ┆ …                ┆ …                     │
│ -5475.023 ┆ 4893.421  ┆ 1168.694             ┆ 0.746            ┆ 0.0002                │
│ -5475.023 ┆ -4893.421 ┆ 1168.694             ┆ 0.746            ┆ 0.0002                │
│ -6073.666 ┆ 5189.129  ┆ 1271.413             ┆ 0.76             ┆ 0.0002                │
│ -6073.666 ┆ -5189.129 ┆ 1271.413             ┆ 0.76             ┆ 0.0002                │
│ -10000.0  ┆ 0.0       ┆ 1591.549             ┆ 1.0              ┆ 0.0001                │
└───────────┴───────────┴──────────────────────┴──────────────────┴───────────────────────┘

>> Run completed in 0.14 seconds.


>> Starting AC power flow...

Model settings: ModelSettings(generator_type_costs='linear', power_flow_formulation='polar', load_shedding=True, write_model_file=False)
Solver settings: SolverSettings(solver_name='ipopt', tee=True, solver_options=None)
> Initializing construction of the optimization model for capacity expansion ... 
 - Decision variables of active power and reactive power for generators
   Size: 4 variables
 - Constraints for generator active power dispatch limits
   Size: 2 constraints
 - Constraints for generator reactive power dispatch limits
   Size: 2 constraints
 - Expressions for dispatch of active power at any bus
   Size: 2 expressions
 - Expressions for dispatch of reactive power at any bus
   Size: 2 expressions
 - Expressions for generation cost per timepoint
   Size: 1 expressions
> Initializing construction of ac power flow variables, constraints, and costs ... 
 - Processing load data for power flow model
 - Decision variables of bus voltage magnitudes and angles
   Size: 4 variables
 - Decision variables of active load shedding
   Size: 2 variables
 - Decision variables of reactive load shedding
   Size: 2 variables
 - Power flow per bus expressions
 - Active power balance at each bus
   Size: 2 constraints
 - Reactive power balance at each bus
   Size: 2 constraints
 - Load shedding cost expressions
   Size: 1 expressions
 - Load shedding cost expressions
   Size: 1 expressions
> Completed in 0.00 seconds. 

> Completed in 0.00 seconds. 

> Completed in 0.01 seconds. 

> Solving ac power flow model...
Ipopt 3.14.19: 

******************************************************************************
This program contains Ipopt, a library for large-scale nonlinear optimization.
 Ipopt is released as open source code under the Eclipse Public License (EPL).
         For more information visit https://github.com/coin-or/Ipopt
******************************************************************************

This is Ipopt version 3.14.19, running with linear solver MUMPS 5.6.2.

Number of nonzeros in equality constraint Jacobian...:       18
Number of nonzeros in inequality constraint Jacobian.:        2
Number of nonzeros in Lagrangian Hessian.............:        3

Total number of variables............................:       10
                     variables with only lower bounds:        4
                variables with lower and upper bounds:        2
                     variables with only upper bounds:        0
Total number of equality constraints.................:        6
Total number of inequality constraints...............:        2
        inequality constraints with only lower bounds:        0
   inequality constraints with lower and upper bounds:        2
        inequality constraints with only upper bounds:        0

iter    objective    inf_pr   inf_du lg(mu)  ||d||  lg(rg) alpha_du alpha_pr  ls
   0  3.9999960e+01 4.60e+03 9.90e+01  -1.0 0.00e+00    -  0.00e+00 0.00e+00   0
   1 -4.6661063e+00 4.55e+03 3.05e+01  -1.0 2.10e+02    -  6.97e-01 1.09e-02f  1
   2 -4.9462584e+02 2.28e+02 2.37e+03  -1.0 2.04e+02    -  9.38e-02 1.00e+00f  1
   3 -4.9649063e+02 5.21e-01 3.14e+02  -1.0 2.27e+02    -  5.59e-01 1.00e+00h  1
   4 -4.9593234e+02 2.74e-06 4.69e-01  -1.0 5.20e-01    -  9.94e-01 1.00e+00h  1
   5 -4.9920248e+02 1.89e-11 2.00e-07  -1.7 1.64e-03    -  1.00e+00 1.00e+00f  1
   6 -4.9999402e+02 7.60e-12 8.62e-09  -3.8 3.96e-04    -  1.00e+00 1.00e+00f  1
   7 -4.9999997e+02 1.33e-11 1.85e-11  -5.7 2.98e-06    -  1.00e+00 1.00e+00f  1
   8 -5.0000004e+02 1.49e-11 2.84e-14  -8.6 3.69e-08    -  1.00e+00 1.00e+00f  1

Number of Iterations....: 8

                                   (scaled)                 (unscaled)
Objective...............:  -5.0000003989976385e+01   -5.0000003989976381e+02
Dual infeasibility......:   2.8421709430404007e-14    2.8421709430404007e-13
Constraint violation....:   1.6685337580910342e-14    1.4868106745780096e-11
Variable bound violation:   9.9749409666714003e-09    9.9749409666714003e-09
Complementarity.........:   2.5059042390659630e-09    2.5059042390659629e-08
Overall NLP error.......:   2.5059042390659630e-09    2.5059042390659629e-08


Number of objective function evaluations             = 9
Number of objective gradient evaluations             = 9
Number of equality constraint evaluations            = 9
Number of inequality constraint evaluations          = 9
Number of equality constraint Jacobian evaluations   = 9
Number of inequality constraint Jacobian evaluations = 9
Number of Lagrangian Hessian evaluations             = 8
Total seconds in IPOPT                               = 0.005

EXIT: Optimal Solution Found.

Could not load duals, i.e., shadow prices, from solver.
> Time spent by solver: 0.07 seconds.
> Solver finished with status: ok, termination condition: optimal.
> Objective value: -500.00003989976386. 

> Initializing export all results to CSV files ... 
- Directory: /Users/ruthkravis/Documents/Research/GFM_data_centers/GridFormingDataCenters/simulations_all_code/gfli_a/outputs/ac_power_flow
> Initializing export generator dispatch results to CSV files ... 
> Completed in 0.00 seconds. 

> Initializing export power flow results to CSV files ... 
> Completed in 0.01 seconds. 

> Completed in 0.01 seconds. 

> Add branches and shunts to system from dissecting pi-model lines:
 - Lines with no series compensation
  - Pi-model 0 lines decomposed into 0 branches and 0 shunts... ok

> Combining parallel RC shunts into one 'effective' parallel RC shunt per bus:
  - System has already one shunt (g parallel b) per bus. No need to combine shunts... ok

> Add constant impedance loads from generic loads:
 - Created 0 constant impedance loads... ok

> Initializing run the EMT simulation for the system ... 
 - Writing EMT simulation results in /Users/ruthkravis/Documents/Research/GFM_data_centers/GridFormingDataCenters/simulations_all_code/gfli_a/outputs/simulation_emt
 - Plotting EMT simulation results in /Users/ruthkravis/Documents/Research/GFM_data_centers/GridFormingDataCenters/simulations_all_code/gfli_a/outputs/simulation_emt
> Completed in 19.15 seconds. 


>> Starting AC power flow...

Model settings: ModelSettings(generator_type_costs='linear', power_flow_formulation='polar', load_shedding=True, write_model_file=False)
Solver settings: SolverSettings(solver_name='ipopt', tee=True, solver_options=None)
> Initializing construction of the optimization model for capacity expansion ... 
 - Decision variables of active power and reactive power for generators
   Size: 4 variables
 - Constraints for generator active power dispatch limits
   Size: 2 constraints
 - Constraints for generator reactive power dispatch limits
   Size: 2 constraints
 - Expressions for dispatch of active power at any bus
   Size: 2 expressions
 - Expressions for dispatch of reactive power at any bus
   Size: 2 expressions
 - Expressions for generation cost per timepoint
   Size: 1 expressions
> Initializing construction of ac power flow variables, constraints, and costs ... 
 - Processing load data for power flow model
 - Decision variables of bus voltage magnitudes and angles
   Size: 4 variables
 - Decision variables of active load shedding
   Size: 2 variables
 - Decision variables of reactive load shedding
   Size: 2 variables
 - Power flow per bus expressions
 - Active power balance at each bus
   Size: 2 constraints
 - Reactive power balance at each bus
   Size: 2 constraints
 - Load shedding cost expressions
   Size: 1 expressions
 - Load shedding cost expressions
   Size: 1 expressions
> Completed in 0.00 seconds. 

> Completed in 0.00 seconds. 

> Completed in 0.00 seconds. 

> Solving ac power flow model...
Ipopt 3.14.19: 

******************************************************************************
This program contains Ipopt, a library for large-scale nonlinear optimization.
 Ipopt is released as open source code under the Eclipse Public License (EPL).
         For more information visit https://github.com/coin-or/Ipopt
******************************************************************************

This is Ipopt version 3.14.19, running with linear solver MUMPS 5.6.2.

Number of nonzeros in equality constraint Jacobian...:       18
Number of nonzeros in inequality constraint Jacobian.:        2
Number of nonzeros in Lagrangian Hessian.............:        3

Total number of variables............................:       10
                     variables with only lower bounds:        4
                variables with lower and upper bounds:        2
                     variables with only upper bounds:        0
Total number of equality constraints.................:        6
Total number of inequality constraints...............:        2
        inequality constraints with only lower bounds:        0
   inequality constraints with lower and upper bounds:        2
        inequality constraints with only upper bounds:        0

iter    objective    inf_pr   inf_du lg(mu)  ||d||  lg(rg) alpha_du alpha_pr  ls
   0  3.9999960e+01 4.60e+03 9.90e+01  -1.0 0.00e+00    -  0.00e+00 0.00e+00   0
   1 -4.6661063e+00 4.55e+03 3.05e+01  -1.0 2.10e+02    -  6.97e-01 1.09e-02f  1
   2 -4.9462584e+02 2.28e+02 2.37e+03  -1.0 2.04e+02    -  9.38e-02 1.00e+00f  1
   3 -4.9649063e+02 5.21e-01 3.14e+02  -1.0 2.27e+02    -  5.59e-01 1.00e+00h  1
   4 -4.9593234e+02 2.74e-06 4.69e-01  -1.0 5.20e-01    -  9.94e-01 1.00e+00h  1
   5 -4.9920248e+02 1.89e-11 2.00e-07  -1.7 1.64e-03    -  1.00e+00 1.00e+00f  1
   6 -4.9999402e+02 7.60e-12 8.62e-09  -3.8 3.96e-04    -  1.00e+00 1.00e+00f  1
   7 -4.9999997e+02 1.33e-11 1.85e-11  -5.7 2.98e-06    -  1.00e+00 1.00e+00f  1
   8 -5.0000004e+02 1.49e-11 2.84e-14  -8.6 3.69e-08    -  1.00e+00 1.00e+00f  1

Number of Iterations....: 8

                                   (scaled)                 (unscaled)
Objective...............:  -5.0000003989976385e+01   -5.0000003989976381e+02
Dual infeasibility......:   2.8421709430404007e-14    2.8421709430404007e-13
Constraint violation....:   1.6685337580910342e-14    1.4868106745780096e-11
Variable bound violation:   9.9749409666714003e-09    9.9749409666714003e-09
Complementarity.........:   2.5059042390659630e-09    2.5059042390659629e-08
Overall NLP error.......:   2.5059042390659630e-09    2.5059042390659629e-08


Number of objective function evaluations             = 9
Number of objective gradient evaluations             = 9
Number of equality constraint evaluations            = 9
Number of inequality constraint evaluations          = 9
Number of equality constraint Jacobian evaluations   = 9
Number of inequality constraint Jacobian evaluations = 9
Number of Lagrangian Hessian evaluations             = 8
Total seconds in IPOPT                               = 0.005

EXIT: Optimal Solution Found.

Could not load duals, i.e., shadow prices, from solver.
> Time spent by solver: 0.06 seconds.
> Solver finished with status: ok, termination condition: optimal.
> Objective value: -500.00003989976386. 

> Initializing export all results to CSV files ... 
- Directory: /Users/ruthkravis/Documents/Research/GFM_data_centers/GridFormingDataCenters/simulations_all_code/gfli_d/outputs/ac_power_flow
> Initializing export generator dispatch results to CSV files ... 
> Completed in 0.00 seconds. 

> Initializing export power flow results to CSV files ... 
> Completed in 0.00 seconds. 

> Completed in 0.01 seconds. 

> Add branches and shunts to system from dissecting pi-model lines:
 - Lines with no series compensation
  - Pi-model 1 lines decomposed into 1 branches and 2 shunts... ok

> Combining parallel RC shunts into one 'effective' parallel RC shunt per bus:
  - System has already one shunt (g parallel b) per bus. No need to combine shunts... ok

> Add constant impedance loads from generic loads:
 - Created 1 constant impedance loads... ok

Modal analysis results:
shape: (29, 5)
┌────────────┬───────────┬──────────────────────┬──────────────────┬───────────────────────┐
│ real       ┆ imag      ┆ natural_frequency_hz ┆ damping_ratio_pu ┆ time_constant_seconds │
│ ---        ┆ ---       ┆ ---                  ┆ ---              ┆ ---                   │
│ f64        ┆ f64       ┆ f64                  ┆ f64              ┆ f64                   │
╞════════════╪═══════════╪══════════════════════╪══════════════════╪═══════════════════════╡
│ -7.616     ┆ 6.289     ┆ 1.572                ┆ 0.771            ┆ 0.1313                │
│ -7.616     ┆ -6.289    ┆ 1.572                ┆ 0.771            ┆ 0.1313                │
│ -13.548    ┆ 0.997     ┆ 2.162                ┆ 0.997            ┆ 0.0738                │
│ -13.548    ┆ -0.997    ┆ 2.162                ┆ 0.997            ┆ 0.0738                │
│ -18.041    ┆ 0.0       ┆ 2.871                ┆ 1.0              ┆ 0.0554                │
│ …          ┆ …         ┆ …                    ┆ …                ┆ …                     │
│ -10000.0   ┆ 0.0       ┆ 1591.549             ┆ 1.0              ┆ 0.0001                │
│ -17220.929 ┆ 2812.787  ┆ 2777.115             ┆ 0.987            ┆ 0.0001                │
│ -17220.929 ┆ -2812.787 ┆ 2777.115             ┆ 0.987            ┆ 0.0001                │
│ -20359.884 ┆ 1647.979  ┆ 3250.974             ┆ 0.997            ┆ 0.0                   │
│ -20359.884 ┆ -1647.979 ┆ 3250.974             ┆ 0.997            ┆ 0.0                   │
└────────────┴───────────┴──────────────────────┴──────────────────┴───────────────────────┘

>> Run completed in 0.08 seconds.


>> Starting AC power flow...

Model settings: ModelSettings(generator_type_costs='linear', power_flow_formulation='polar', load_shedding=True, write_model_file=False)
Solver settings: SolverSettings(solver_name='ipopt', tee=True, solver_options=None)
> Initializing construction of the optimization model for capacity expansion ... 
 - Decision variables of active power and reactive power for generators
   Size: 4 variables
 - Constraints for generator active power dispatch limits
   Size: 2 constraints
 - Constraints for generator reactive power dispatch limits
   Size: 2 constraints
 - Expressions for dispatch of active power at any bus
   Size: 2 expressions
 - Expressions for dispatch of reactive power at any bus
   Size: 2 expressions
 - Expressions for generation cost per timepoint
   Size: 1 expressions
> Initializing construction of ac power flow variables, constraints, and costs ... 
 - Processing load data for power flow model
 - Decision variables of bus voltage magnitudes and angles
   Size: 4 variables
 - Decision variables of active load shedding
   Size: 2 variables
 - Decision variables of reactive load shedding
   Size: 2 variables
 - Power flow per bus expressions
 - Active power balance at each bus
   Size: 2 constraints
 - Reactive power balance at each bus
   Size: 2 constraints
 - Load shedding cost expressions
   Size: 1 expressions
 - Load shedding cost expressions
   Size: 1 expressions
> Completed in 0.00 seconds. 

> Completed in 0.00 seconds. 

> Completed in 0.00 seconds. 

> Solving ac power flow model...
Ipopt 3.14.19: 

******************************************************************************
This program contains Ipopt, a library for large-scale nonlinear optimization.
 Ipopt is released as open source code under the Eclipse Public License (EPL).
         For more information visit https://github.com/coin-or/Ipopt
******************************************************************************

This is Ipopt version 3.14.19, running with linear solver MUMPS 5.6.2.

Number of nonzeros in equality constraint Jacobian...:       18
...